ElectricityNetView/data/dss/cm1_Power_seq_kVA.txt

SYMMETRICAL COMPONENT POWERS BY CIRCUIT ELEMENT (first 3 phases)                                     Excess Power

Element           Term    P1(KW)   Q1(kvar)       P2         Q2      P0      Q0       P_Norm      Q_Norm     P_Emerg    Q_Emerg

"Vsource.SOURCE"     1        0.0   -41855.4        0.0       -0.0     0.0    -0.0
"Vsource.SOURCE"     2        0.0        0.0        0.0        0.0     0.0     0.0
"中堡线"             1       10.2       -4.6        0.0       -0.0     0.0     0.0        0.0        0.0        0.0        0.0
"中堡线"             2        0.0     -285.0       -0.0       -0.0    -0.0    -0.0
"中红线"             1       32.4      481.9        0.0        0.0     0.0     0.0        0.0        0.0        0.0        0.0
"中红线"             2        0.0     -614.1       -0.0       -0.0    -0.0    -0.0
"中新线"             1       13.6      178.6        0.0        0.0     0.0     0.0        0.0        0.0        0.0        0.0
"中新线"             2        0.0     -184.8       -0.0       -0.0    -0.0     0.0
"中南线"             1       66.4      480.7        0.0        0.0     0.0     0.0        0.0        0.0        0.0        0.0
"中南线"             2        0.0     -534.3       -0.0       -0.0    -0.0    -0.0
"堡竖线"             1       59.3      435.0        0.0        0.0     0.0     0.0        0.0        0.0        0.0        0.0
"堡竖线"             2        0.0     -697.0       -0.0       -0.0    -0.0    -0.0
"堡长线"             1        7.8      511.7        0.0        0.0     0.0     0.0        0.0        0.0        0.0        0.0
"堡长线"             2        0.0     -613.2       -0.0       -0.0    -0.0    -0.0
"家堡线"             1       77.9      511.7        0.0        0.0     0.0     0.0        0.0        0.0        0.0        0.0
"家堡线"             2        0.0     -613.2       -0.0       -0.0    -0.0    -0.0
"家汲线"             1       26.4      511.7        0.0        0.0     0.0     0.0        0.0        0.0        0.0        0.0
"家汲线"             2        0.0     -613.2       -0.0       -0.0    -0.0    -0.0
"家长线"             1     -132.5      511.7        0.0        0.0     0.0     0.0        0.0        0.0        0.0        0.0
"家长线"             2        0.0     -613.2       -0.0       -0.0    -0.0    -0.0
"长江线"             1      -10.7      511.7        0.0        0.0     0.0     0.0        0.0        0.0        0.0        0.0
"长江线"             2        0.0     -613.2       -0.0       -0.0    -0.0    -0.0
"海中线"             1      170.2      511.7        0.0        0.0     0.0     0.0        0.0        0.0        0.0        0.0
"海中线"             2        0.0     -613.2       -0.0       -0.0    -0.0    -0.0
"双东线"             1        0.0      511.7        0.0        0.0     0.0     0.0        0.0        0.0        0.0        0.0
"双东线"             2        0.0     -613.2       -0.0       -0.0    -0.0    -0.0
"双庙线"             1        0.0      511.7        0.0        0.0     0.0     0.0        0.0        0.0        0.0        0.0
"双庙线"             2        0.0     -613.2       -0.0       -0.0    -0.0    -0.0
"园区线"             1        0.0      511.7        0.0        0.0     0.0     0.0        0.0        0.0        0.0        0.0
"园区线"             2        0.0     -613.2       -0.0       -0.0    -0.0    -0.0
"双明线"             1        0.0      511.7        0.0        0.0     0.0     0.0        0.0        0.0        0.0        0.0
"双明线"             2        0.0     -613.2       -0.0       -0.0    -0.0    -0.0
"双建线"             1        0.0      511.7        0.0        0.0     0.0     0.0        0.0        0.0        0.0        0.0
"双建线"             2        0.0     -613.2       -0.0       -0.0    -0.0    -0.0
"双湄线"             1        0.0      511.7        0.0        0.0     0.0     0.0        0.0        0.0        0.0        0.0
"双湄线"             2        0.0     -613.2       -0.0       -0.0    -0.0    -0.0
"双同线"             1        0.0      511.7        0.0        0.0     0.0     0.0        0.0        0.0        0.0        0.0
"双同线"             2        0.0     -613.2       -0.0       -0.0    -0.0    -0.0
"堡滧线"             1        0.0      511.7        0.0        0.0     0.0     0.0        0.0        0.0        0.0        0.0
"堡滧线"             2        0.0     -613.2       -0.0       -0.0    -0.0    -0.0
"堡镇线"             1        0.0      511.7        0.0        0.0     0.0     0.0        0.0        0.0        0.0        0.0
"堡镇线"             2        0.0     -613.2       -0.0       -0.0    -0.0    -0.0
"堡船线"             1        0.0      511.7        0.0        0.0     0.0     0.0        0.0        0.0        0.0        0.0
"堡船线"             2        0.0     -613.2       -0.0       -0.0    -0.0    -0.0
"堡港线"             1        0.0      511.7        0.0        0.0     0.0     0.0        0.0        0.0        0.0        0.0
"堡港线"             2        0.0     -613.2       -0.0       -0.0    -0.0    -0.0
"家裕线"             1        0.0      511.7        0.0        0.0     0.0     0.0        0.0        0.0        0.0        0.0
"家裕线"             2        0.0     -613.2       -0.0       -0.0    -0.0    -0.0
"家前线"             1        0.0      511.7        0.0        0.0     0.0     0.0        0.0        0.0        0.0        0.0
"家前线"             2        0.0     -613.2       -0.0       -0.0    -0.0    -0.0
"家陈线"             1        0.0      511.7        0.0        0.0     0.0     0.0        0.0        0.0        0.0        0.0
"家陈线"             2        0.0     -613.2       -0.0       -0.0    -0.0    -0.0
"家陈线"             1        0.0      511.7        0.0        0.0     0.0     0.0        0.0        0.0        0.0        0.0
"家陈线"             2        0.0     -613.2       -0.0       -0.0    -0.0    -0.0
"家陈线"             1        0.0      511.7        0.0        0.0     0.0     0.0        0.0        0.0        0.0        0.0
"家陈线"             2        0.0     -613.2       -0.0       -0.0    -0.0    -0.0
"家陈线"             1        0.0      511.7        0.0        0.0     0.0     0.0        0.0        0.0        0.0        0.0
"家陈线"             2        0.0     -613.2       -0.0       -0.0    -0.0    -0.0
"家陈线"             1        0.0      511.7        0.0        0.0     0.0     0.0        0.0        0.0        0.0        0.0
"家陈线"             2        0.0     -613.2       -0.0       -0.0    -0.0    -0.0
"家陈线"             1        0.0      511.7        0.0        0.0     0.0     0.0        0.0        0.0        0.0        0.0
"家陈线"             2        0.0     -613.2       -0.0       -0.0    -0.0    -0.0
"家陈线"             1        0.0      511.7        0.0        0.0     0.0     0.0        0.0        0.0        0.0        0.0
"家陈线"             2        0.0     -613.2       -0.0       -0.0    -0.0    -0.0
"家陈线"             1        0.0      511.7        0.0        0.0     0.0     0.0        0.0        0.0        0.0        0.0
"家陈线"             2        0.0     -613.2       -0.0       -0.0    -0.0    -0.0
"家陈线"             1        0.0      511.7        0.0        0.0     0.0     0.0        0.0        0.0        0.0        0.0
"家陈线"             2        0.0     -613.2       -0.0       -0.0    -0.0    -0.0
"家陈线"             1        0.0      511.7        0.0        0.0     0.0     0.0        0.0        0.0        0.0        0.0
"家陈线"             2        0.0     -613.2       -0.0       -0.0    -0.0    -0.0
"家陈线"             1        0.0      511.7        0.0        0.0     0.0     0.0        0.0        0.0        0.0        0.0
"家陈线"             2        0.0     -613.2       -0.0       -0.0    -0.0    -0.0
"家陈线"             1        0.0      511.7        0.0        0.0     0.0     0.0        0.0        0.0        0.0        0.0
"家陈线"             2        0.0     -613.2       -0.0       -0.0    -0.0    -0.0
"家陈线"             1        0.0      511.7        0.0        0.0     0.0     0.0        0.0        0.0        0.0        0.0
"家陈线"             2        0.0     -613.2       -0.0       -0.0    -0.0    -0.0
"家陈线"             1        0.0      511.7        0.0        0.0     0.0     0.0        0.0        0.0        0.0        0.0
"家陈线"             2        0.0     -613.2       -0.0       -0.0    -0.0    -0.0
"家陈线"             1        0.0      511.7        0.0        0.0     0.0     0.0        0.0        0.0        0.0        0.0
"家陈线"             2        0.0     -613.2       -0.0       -0.0    -0.0    -0.0
"家陈线"             1        0.0      511.7        0.0        0.0     0.0     0.0        0.0        0.0        0.0        0.0
"家陈线"             2        0.0     -613.2       -0.0       -0.0    -0.0    -0.0
"家陈线"             1        0.0      511.7        0.0        0.0     0.0     0.0        0.0        0.0        0.0        0.0
"家陈线"             2        0.0     -613.2       -0.0       -0.0    -0.0    -0.0
"家陈线"             1        0.0      511.7        0.0        0.0     0.0     0.0        0.0        0.0        0.0        0.0
"家陈线"             2        0.0     -613.2       -0.0       -0.0    -0.0    -0.0
"家陈线"             1        0.0      511.7        0.0        0.0     0.0     0.0        0.0        0.0        0.0        0.0
"家陈线"             2        0.0     -613.2       -0.0       -0.0    -0.0    -0.0
"家陈线"             1        0.0      511.7        0.0        0.0     0.0     0.0        0.0        0.0        0.0        0.0
"家陈线"             2        0.0     -613.2       -0.0       -0.0    -0.0    -0.0
"家陈线"             1        0.0      511.7        0.0        0.0     0.0     0.0        0.0        0.0        0.0        0.0
"家陈线"             2        0.0     -613.2       -0.0       -0.0    -0.0    -0.0

"长兴站"           1        0.0     1200.0        0.0        0.0     0.0     0.0
"中双港站"         1       49.2     1200.1        0.0        0.0     0.0     0.0
"堡北站"           1        0.0     1200.1        0.0        0.0     0.0     0.0
"陈家镇站"         1       28.2      108.5        0.0        0.0     0.0     0.0
"红星站"           1        0.0      106.3        0.0        0.0     0.0     0.0
"南门站"           1        0.0      102.4        0.0        0.0     0.0     0.0
"新海站"           1        0.0      100.0        0.0        0.0     0.0     0.0
"长江站"           1        0.0       99.3        0.0        0.0     0.0     0.0
"竖河站"           1        0.0       95.5        0.0        0.0     0.0     0.0
"汲浜站"           1        0.0       95.5        0.0        0.0     0.0     0.0

